ckt7_Mon_rfi_06_der050.csv
fault_bus,fault_type,fault_R_ohm,Va_mag_pu,Va_ang_deg,Vb_mag_pu,Vb_ang_deg,Vc_mag_pu,Vc_ang_deg,Ia_mag_A,Ia_ang_deg,Ib_mag_A,Ib_ang_deg,Ic_mag_A,Ic_ang_deg
318412,SLG,0,0.212521,-94.8156,1.128125,-142.7589,1.009156,94.1839,1186.9441,79.3824,2146.2403,31.4901,1552.4439,-93.7394
318412,SLG,10,1.080443,-26.408,1.080562,-146.1899,1.078593,93.6446,1734.2765,145.828,1767.9552,25.9095,1724.644,-94.3037
318412,SLG,20,1.080418,-26.3858,1.080586,-146.1911,1.0786,93.6463,1734.095,145.8501,1768.0693,25.9044,1724.7216,-94.2979
318412,SLG,30,1.08041,-26.3784,1.080594,-146.1914,1.078602,93.6468,1734.0344,145.8574,1768.1073,25.9027,1724.7474,-94.2959
318412,SLG,40,1.080406,-26.3747,1.080598,-146.1916,1.078603,93.6471,1734.0041,145.8611,1768.1263,25.9018,1724.7603,-94.295
318412,LL,0,0.19978,-111.9183,0.141517,162.5391,1.042029,96.1707,981.8188,48.387,776.4879,5.1127,1561.1911,-87.2105
318412,LL,10,1.080429,-26.4114,1.080611,-146.2345,1.078545,93.6469,1734.1185,145.8163,1768.3214,25.8651,1724.4154,-94.2933
318412,LL,20,1.080411,-26.3875,1.08061,-146.2133,1.078576,93.6474,1734.016,145.8442,1768.2526,25.8822,1724.6072,-94.2927
318412,LL,30,1.080405,-26.3795,1.08061,-146.2063,1.078586,93.6476,1733.9817,145.8535,1768.2295,25.8879,1724.6712,-94.2925
318412,LL,40,1.080402,-26.3755,1.08061,-146.2028,1.078591,93.6477,1733.9646,145.8582,1768.218,25.8907,1724.7031,-94.2924
318412,3LG,0,0.136559,-105.0877,0.136534,135.0529,0.13643,14.8696,397.4734,69.4035,401.8602,-50.6367,396.0696,-170.9392
318412,3LG,10,1.080381,-26.4091,1.080598,-146.2378,1.078594,93.6023,1733.8935,145.8265,1768.1634,25.8536,1724.7795,-94.3377
318412,3LG,20,1.080387,-26.3863,1.080604,-146.215,1.078601,93.6251,1733.9035,145.8493,1768.1736,25.8765,1724.7894,-94.3149
318412,3LG,30,1.08039,-26.3787,1.080606,-146.2074,1.078603,93.6327,1733.9068,145.8569,1768.1769,25.8841,1724.7926,-94.3072
318412,3LG,40,1.080391,-26.3749,1.080607,-146.2036,1.078604,93.6365,1733.9084,145.8607,1768.1785,25.8879,1724.7943,-94.3034
243937,SLG,0,0.192039,-93.3729,1.441606,-173.8759,1.646497,111.2967,1641.8281,57.7137,3002.3614,6.0168,2343.0297,-64.4622
243937,SLG,10,1.074274,-26.5765,1.083725,-146.3887,1.080275,93.8893,1725.1037,145.4697,1777.7826,25.8223,1722.047,-93.9821
243937,SLG,20,1.077325,-26.4703,1.082173,-146.2908,1.079438,93.7692,1729.4923,145.6706,1772.9994,25.8608,1723.4059,-94.1368
243937,SLG,30,1.078346,-26.4347,1.081653,-146.258,1.07916,93.7289,1730.9624,145.7377,1771.3977,25.8736,1723.8664,-94.1885
243937,SLG,40,1.078857,-26.417,1.081393,-146.2416,1.079022,93.7087,1731.6987,145.7713,1770.5955,25.88,1724.0982,-94.2143
243937,LL,0,0.105923,-117.6043,0.091268,-151.0721,1.494623,91.7869,916.001,25.8964,936.5539,14.9336,2379.2744,-91.245
243937,LL,10,1.075945,-26.3356,1.077604,-146.6011,1.083357,93.6923,1722.3268,145.7776,1768.7075,25.4252,1731.4569,-94.0587
243937,LL,20,1.078156,-26.3493,1.079103,-146.3974,1.080995,93.6705,1728.0878,145.8249,1768.4518,25.6611,1728.1384,-94.1744
243937,LL,30,1.078898,-26.354,1.079604,-146.3292,1.080202,93.663,1730.0221,145.8407,1768.3635,25.7402,1727.0278,-94.2134
243937,LL,40,1.079271,-26.3563,1.079855,-146.295,1.079804,93.6593,1730.9921,145.8485,1768.319,25.7799,1726.4715,-94.2329
243937,3LG,0,0.033784,-88.5786,0.033774,151.5431,0.033756,31.3738,98.3046,85.8988,99.399,-34.1546,97.9718,-154.4352
243937,3LG,10,1.079031,-26.5317,1.079245,-146.3608,1.077251,93.4794,1731.7224,145.7039,1765.9523,25.7306,1722.6325,-94.4604
243937,3LG,20,1.079713,-26.4477,1.079928,-146.2765,1.077929,93.5636,1732.819,145.788,1767.0691,25.8149,1723.717,-94.3763
243937,3LG,30,1.07994,-26.4196,1.080155,-146.2484,1.078155,93.5917,1733.184,145.816,1767.4408,25.843,1724.0779,-94.3482
243937,3LG,40,1.080053,-26.4056,1.080269,-146.2344,1.078268,93.6058,1733.3664,145.83,1767.6266,25.8571,1724.2583,-94.3342
157347,SLG,0,0.44125,-27.0395,1.200606,-161.6576,1.344824,103.0519,1250.369,119.9531,2339.3015,9.5957,2055.0852,-80.8566
157347,SLG,10,1.073353,-26.908,1.086054,-146.3168,1.07794,93.9611,1727.5912,145.1059,1780.5628,26.0206,1715.4349,-94.0049
157347,SLG,20,1.07688,-26.6379,1.083356,-146.2539,1.078245,93.8052,1730.783,145.4867,1774.3942,25.962,1720.0513,-94.1492
157347,SLG,30,1.078052,-26.5469,1.082446,-146.2332,1.078359,93.753,1731.8334,145.6146,1772.3285,25.9416,1721.6192,-94.197
157347,SLG,40,1.078638,-26.5013,1.081989,-146.2229,1.078419,93.7268,1732.356,145.6788,1771.294,25.9312,1722.4087,-94.2208
157347,LL,0,0.50129,-29.8899,0.408836,-155.6215,1.30867,90.9626,1124.2437,138.5395,1490.0291,10.7461,2195.9487,-96.0634
157347,LL,10,1.072726,-26.5939,1.078955,-146.8603,1.083363,93.8331,1718.2197,145.3898,1773.7631,25.2588,1727.6288,-93.8815
157347,LL,20,1.076524,-26.4805,1.079825,-146.5282,1.080988,93.7428,1726.0215,145.6281,1771.0802,25.5779,1726.1527,-94.0843
157347,LL,30,1.077806,-26.4419,1.080097,-146.4166,1.080194,93.7117,1728.6422,145.7088,1770.1387,25.6848,1725.6875,-94.153
157347,LL,40,1.07845,-26.4225,1.080229,-146.3607,1.079798,93.696,1729.9562,145.7494,1769.659,25.7383,1725.46,-94.1875
157347,3LG,0,0.468287,-35.7936,0.468159,-155.6689,0.467852,84.1533,1347.9303,138.7161,1363.5613,18.6487,1342.0903,-101.6385
157347,3LG,10,1.078094,-26.7207,1.078318,-146.5501,1.076324,93.2908,1730.218,145.5147,1764.442,25.5414,1721.1449,-94.649
157347,3LG,20,1.079252,-26.5427,1.079473,-146.3717,1.077474,93.4688,1732.0792,145.6929,1766.3268,25.7198,1722.9856,-94.4711
157347,3LG,30,1.079635,-26.4831,1.079854,-146.312,1.077853,93.5284,1732.6936,145.7525,1766.9489,25.7795,1723.5931,-94.4115
157347,3LG,40,1.079825,-26.4532,1.080043,-146.2821,1.078042,93.5582,1732.9996,145.7824,1767.2587,25.8094,1723.8957,-94.3817
298162,SLG,0,0.078943,-88.1828,1.329198,-162.4988,1.357412,108.5089,1280.5846,63.5997,2694.1904,14.9642,1814.242,-69.4216
298162,SLG,10,1.068932,-27.9344,1.093011,-146.1676,1.07204,94.2091,1731.9608,143.9479,1790.344,26.5532,1696.4829,-94.0051
298162,SLG,20,1.074725,-27.1538,1.086847,-146.1753,1.075218,93.927,1733.0917,144.9041,1779.1752,26.2349,1710.4879,-94.1553
298162,SLG,30,1.076629,-26.8915,1.084776,-146.1799,1.076324,93.8336,1733.3981,145.2255,1775.4885,26.1251,1715.2248,-94.2024
298162,SLG,40,1.077576,-26.7599,1.083737,-146.1826,1.076886,93.7871,1733.5392,145.3866,1773.6534,26.0694,1717.6059,-94.2254
298162,LL,0,0.051135,-133.4161,0.047902,-144.7264,1.379483,93.2224,800.6869,14.1833,809.1023,11.9764,2181.65,-88.5479
298162,LL,10,1.062362,-27.3712,1.081305,-147.7332,1.084511,94.2231,1703.592,144.2112,1786.9695,24.6324,1718.4894,-93.3319
298162,LL,20,1.071326,-26.8748,1.08112,-146.9649,1.081475,93.9421,1718.729,145.0336,1777.9096,25.2672,1721.2893,-93.8101
298162,LL,30,1.074337,-26.7061,1.080987,-146.7078,1.080499,93.8455,1723.7864,145.3113,1774.7411,25.4782,1722.3782,-93.9704
298162,LL,40,1.075847,-26.6211,1.080906,-146.579,1.080018,93.7966,1726.3167,145.4508,1773.1294,25.5836,1722.9529,-94.0507
298162,3LG,0,0.006,-97.7255,0.005999,142.3453,0.005996,22.2546,17.4597,76.733,17.6606,-43.3327,17.396,-163.5428
298162,3LG,10,1.074563,-27.3517,1.074852,-147.1822,1.072834,92.662,1724.5514,144.8826,1758.8012,24.91,1715.5211,-95.2772
298162,3LG,20,1.07751,-26.859,1.077764,-146.6885,1.075752,93.1537,1729.2869,145.3759,1763.5463,25.4034,1720.2141,-94.7859
298162,3LG,30,1.078479,-26.6941,1.07872,-146.5234,1.076711,93.3181,1730.8407,145.541,1765.1041,25.5684,1721.7537,-94.6216
298162,3LG,40,1.07896,-26.6116,1.079195,-146.4407,1.077188,93.4005,1731.6132,145.6237,1765.8785,25.651,1722.5193,-94.5393
165448,SLG,0,0.072107,-88.4466,1.333867,-162.2662,1.35208,108.7089,1266.6496,63.322,2704.2501,15.1829,1804.2749,-69.0728
165448,SLG,10,1.068576,-28.0682,1.093899,-146.1396,1.071138,94.2362,1732.9604,143.8035,1791.4169,26.6306,1693.9018,-94.0156
165448,SLG,20,1.074563,-27.2213,1.08729,-146.1604,1.074752,93.94,1733.6266,144.8313,1779.6818,26.2749,1709.1845,-94.1618
165448,SLG,30,1.076525,-26.9366,1.085071,-146.1698,1.07601,93.8422,1733.762,145.1768,1775.8187,26.152,1714.3532,-94.207
165448,SLG,40,1.077499,-26.7938,1.083958,-146.1749,1.076649,93.7934,1733.8148,145.35,1773.8983,26.0897,1716.9512,-94.2289
165448,LL,0,0.046916,-134.0253,0.043963,-145.4654,1.379649,93.3494,796.2589,13.3965,804.5834,11.3399,2184.14,-88.3277
165448,LL,10,1.061093,-27.4775,1.081802,-147.8387,1.084522,94.2774,1702.0112,144.0528,1788.8876,24.5636,1717.0058,-93.261
165448,LL,20,1.070694,-26.9293,1.081394,-147.0174,1.081458,93.9699,1717.957,144.9532,1778.9133,25.2337,1720.4867,-93.7753
165448,LL,30,1.073917,-26.7427,1.081175,-146.7427,1.080483,93.8641,1723.276,145.2575,1775.4192,25.4561,1721.8291,-93.9473
165448,LL,40,1.075533,-26.6486,1.08105,-146.6052,1.080005,93.8107,1725.9356,145.4104,1773.6413,25.5671,1722.5357,-94.0334
165448,3LG,0,0.005557,-98.1125,0.005557,141.953,0.005554,21.8702,16.1732,76.3438,16.36,-43.7231,16.114,-163.9258
165448,3LG,10,1.074167,-27.4307,1.074469,-147.2613,1.072444,92.5836,1723.9158,144.8035,1758.1791,24.8312,1714.8862,-95.3557
165448,3LG,20,1.077318,-26.8987,1.077578,-146.7282,1.075563,93.1143,1728.9798,145.3361,1763.2447,25.3637,1719.907,-94.8253
165448,3LG,30,1.078352,-26.7206,1.078597,-146.5499,1.076586,93.2918,1730.638,145.5144,1764.9052,25.5419,1721.551,-94.6479
165448,3LG,40,1.078865,-26.6315,1.079104,-146.4606,1.077094,93.3807,1731.462,145.6037,1765.7301,25.6311,1722.368,-94.5591
165449,SLG,0,0.001996,-103.8344,1.365999,-162.1652,1.35062,110.0648,13285.9983,-102.2566,2800.3656,15.2353,1809.6943,-66.0889
165449,SLG,10,1.066141,-29.4409,1.103423,-145.8473,1.061567,94.5332,991.9446,135.9976,1802.9614,27.4315,1666.9088,-94.1222
165449,SLG,20,1.073607,-27.9124,1.092,-146.0007,1.069776,94.0777,1358.7614,141.8302,1784.9092,26.6922,1695.5924,-94.2343
165449,SLG,30,1.075947,-27.3983,1.088197,-146.0602,1.072652,93.9315,1483.0819,143.3117,1779.1788,26.4337,1705.2757,-94.2595
165449,SLG,40,1.077088,-27.1404,1.086297,-146.0916,1.074115,93.8594,1545.5328,143.9962,1776.3684,26.3024,1710.1378,-94.2699
165449,LL,0,0.002884,-87.3142,0.002891,121.9561,1.397198,93.5556,20759.7428,-85.2484,20458.3156,120.1038,2246.7361,-87.3164
165449,LL,10,1.048786,-28.5486,1.088519,-148.9166,1.08491,94.8591,949.1157,135.2755,1038.3768,18.4386,1701.9572,-92.5008
165449,LL,20,1.06467,-27.4826,1.08508,-147.5489,1.0813,94.2672,1333.1197,141.7287,1404.2607,22.8128,1712.0837,-93.4092
165449,LL,30,1.069935,-27.1154,1.083704,-147.0952,1.080296,94.0635,1465.1035,143.2784,1525.91,23.9394,1716.0295,-93.7068
165449,LL,40,1.072559,-26.9297,1.082973,-146.8689,1.079833,93.9606,1531.7249,143.9821,1586.6211,24.4619,1718.1124,-93.8544
165449,3LG,0,0.003226,-102.6689,0.003226,137.3295,0.003226,17.3315,23217.0084,-102.6667,23216.3168,137.3318,23216.766,17.3339
165449,3LG,10,1.071341,-28.2153,1.071838,-148.0465,1.069692,91.8071,960.8206,137.7861,995.2444,17.9287,953.5398,-102.5361
165449,3LG,20,1.07599,-27.2934,1.076349,-147.123,1.074267,92.7238,1344.1155,142.7077,1378.5187,22.7548,1335.8401,-97.5074
165449,3LG,30,1.077486,-26.9843,1.077798,-146.8135,1.07574,93.031,1473.4719,143.8908,1507.8416,23.9271,1464.907,-96.3035
165449,3LG,40,1.078223,-26.8295,1.078511,-146.6585,1.076467,93.1849,1538.3804,144.4282,1572.729,24.4611,1529.675,-95.7573
287274,SLG,0,0.295809,-43.1186,1.321905,-157.0624,1.232192,107.9809,9534.2571,-99.385,2781.6116,16.8673,1727.5984,-66.4766
287274,SLG,10,1.068863,-29.5411,1.103001,-145.7085,1.059461,94.4426,986.8422,134.291,1812.6,27.9595,1648.0231,-94.1421
287274,SLG,20,1.075244,-27.972,1.091751,-145.9237,1.068633,94.0272,1354.7066,141.0387,1789.2233,26.9776,1685.9144,-94.2657
287274,SLG,30,1.077103,-27.44,1.08802,-146.0071,1.071871,93.8965,1480.0949,142.793,1781.925,26.6287,1698.7797,-94.2853
287274,SLG,40,1.077979,-27.1724,1.086159,-146.0511,1.073523,93.8327,1543.1911,143.61,1778.376,26.4504,1705.2504,-94.2911
287274,LL,0,0.35893,-43.8248,0.2983,-173.8287,1.316868,94.6403,14107.6468,-76.2763,14933.1027,129.1988,2239.739,-87.1246
287274,LL,10,1.04943,-28.725,1.090855,-148.9071,1.08265,94.9168,932.8792,133.2715,1035.3927,17.3316,1693.3691,-91.9236
287274,LL,20,1.065156,-27.5896,1.086504,-147.5401,1.079975,94.2971,1321.2788,140.8528,1402.5844,22.3153,1706.7552,-93.1326
287274,LL,30,1.070302,-27.1909,1.084708,-147.0881,1.079366,94.0834,1456.4479,142.7116,1524.7939,23.617,1712.2463,-93.5258
287274,LL,40,1.072852,-26.9878,1.083746,-146.8631,1.079118,93.9755,1524.9554,143.5624,1585.7889,24.2233,1715.1881,-93.72
287274,3LG,0,0.344198,-51.2827,0.344181,-171.2877,0.344202,68.7149,16354.5793,-93.1721,16353.4207,146.8261,16354.4642,26.8286
287274,3LG,10,1.071773,-28.2722,1.072378,-148.1053,1.070166,91.7547,946.683,136.5103,981.0451,16.6484,939.8827,-103.7988
287274,3LG,20,1.076286,-27.3284,1.076701,-147.1586,1.074579,92.6913,1334.6872,142.1577,1369.0795,22.201,1326.656,-98.0509
287274,3LG,30,1.077702,-27.0091,1.078051,-146.8386,1.075966,93.008,1466.6917,143.536,1501.0601,23.5698,1458.2894,-96.654
287274,3LG,40,1.078392,-26.8485,1.078709,-146.6778,1.076643,93.1671,1533.113,144.166,1567.463,24.1969,1524.5293,-96.0164
283954,SLG,0,0.409139,-36.2421,1.293886,-155.263,1.194654,106.4389,8002.3425,-102.3469,2808.9601,16.3052,1756.6071,-65.7335
283954,SLG,10,1.07179,-29.6012,1.102287,-145.5824,1.057726,94.3441,991.9429,132.6859,1819.9605,28.4312,1631.7449,-94.2074
283954,SLG,20,1.076966,-28.0023,1.091289,-145.8559,1.067753,93.9713,1357.397,140.3222,1792.2025,27.2312,1677.7445,-94.3209
283954,SLG,30,1.078309,-27.4601,1.087686,-145.961,1.071284,93.8577,1481.9942,142.329,1783.7411,26.8015,1693.3381,-94.3269
283954,SLG,40,1.078906,-27.1874,1.085899,-146.0161,1.073083,93.8031,1544.6644,143.2666,1779.6726,26.5812,1701.1728,-94.324
283954,LL,0,0.464536,-37.9402,0.40177,-163.004,1.28105,94.7797,11761.0048,-76.9472,12704.5331,127.9759,2274.8623,-87.2413
283954,LL,10,1.050547,-28.8724,1.093244,-148.8666,1.080396,94.9579,928.4781,131.3921,1042.7589,16.2111,1684.9695,-91.4336
283954,LL,20,1.065967,-27.6737,1.087842,-147.5095,1.07867,94.3132,1317.4163,140.0407,1407.1662,21.8496,1701.5381,-92.9084
283954,LL,30,1.070905,-27.2491,1.085627,-147.0652,1.078458,94.0929,1453.613,142.1888,1528.0881,23.3226,1708.5554,-93.3819
283954,LL,40,1.073329,-27.0322,1.084445,-146.8449,1.078423,93.982,1522.7445,143.1764,1588.3533,24.0081,1712.3428,-93.6144
283954,3LG,0,0.444058,-42.6165,0.444033,-162.6263,0.444092,77.3811,13792.9956,-94.0016,13791.9392,145.9966,13792.7327,25.9987
283954,3LG,10,1.072464,-28.3071,1.07318,-148.1394,1.070866,91.7251,943.9444,135.2391,978.6705,15.3834,937.5409,-105.0462
283954,3LG,20,1.076715,-27.348,1.077185,-147.1775,1.075005,92.6744,1332.468,141.6279,1367.0761,21.6709,1324.6227,-98.5713
283954,3LG,30,1.078007,-27.0226,1.078393,-146.8516,1.076268,92.9963,1465.0751,143.198,1499.5927,23.2315,1456.7928,-96.986
283954,3LG,40,1.078629,-26.8589,1.078972,-146.6877,1.076876,93.1582,1531.8542,143.9174,1566.318,23.9481,1523.3588,-96.2606
283956,SLG,0,0.526252,-44.6957,1.291445,-152.9731,1.144353,105.9234,6740.9287,-92.3483,2668.0613,20.0239,1583.4673,-70.2122
283956,SLG,10,1.071695,-29.5405,1.101933,-145.5974,1.058151,94.3354,1003.239,133.2407,1819.2536,28.3803,1633.4665,-94.196
283956,SLG,20,1.076924,-27.9866,1.091206,-145.8602,1.067866,93.9697,1360.4683,140.4227,1792.0789,27.2168,1678.1876,-94.3164
283956,SLG,30,1.078288,-27.453,1.087649,-145.963,1.071335,93.8571,1483.3985,142.3702,1783.6942,26.7947,1693.5387,-94.3246
283956,SLG,40,1.078894,-27.1834,1.085878,-146.0173,1.073112,93.8027,1545.4709,143.289,1779.6491,26.5773,1701.2877,-94.3226
283956,LL,0,0.579993,-42.2982,0.54875,-168.9958,1.256407,95.9502,9744.0872,-67.419,10537.5874,137.5876,2151.1445,-86.8114
283956,LL,10,1.051175,-28.8223,1.092533,-148.8222,1.080445,94.927,940.9267,131.7908,1050.5701,16.7563,1686.2035,-91.4959
283956,LL,20,1.066112,-27.6597,1.087645,-147.4991,1.078704,94.3054,1320.901,140.1077,1409.1775,21.9494,1701.9438,-92.9229
283956,LL,30,1.070968,-27.2426,1.085537,-147.0606,1.078476,94.0894,1455.223,142.2162,1528.995,23.3634,1708.7521,-93.3881
283956,LL,40,1.073364,-27.0284,1.084394,-146.8423,1.078434,93.9801,1523.6739,143.1913,1588.8732,24.0301,1712.4594,-93.6178
283956,3LG,0,0.582213,-46.4205,0.582392,-166.4243,0.582222,73.5838,11434.1337,-84.4534,11430.7862,155.5537,11434.8711,35.5499
283956,3LG,10,1.072455,-28.2803,1.073158,-148.1126,1.070854,91.7512,952.9564,135.6244,987.66,15.7587,946.4706,-104.6598
283956,3LG,20,1.076709,-27.341,1.077176,-147.1705,1.075,92.6813,1334.9599,141.6926,1369.5518,21.7348,1327.0943,-98.5064
283956,3LG,30,1.078004,-27.0194,1.078389,-146.8484,1.076265,92.9994,1466.2258,143.2241,1500.7358,23.2573,1457.9347,-96.9599
283956,3LG,40,1.078627,-26.857,1.07897,-146.6858,1.076874,93.16,1532.5208,143.9315,1566.9803,23.962,1524.0206,-96.2465
189963,SLG,0,0.594569,-37.9529,1.283589,-151.4747,1.113782,105.1225,5614.7765,-101.0598,2944.8928,16.0862,1785.1132,-62.1109
189963,SLG,10,1.077664,-30.1415,1.103531,-145.1602,1.050114,94.1809,923.72,126.4364,1857.3958,29.9399,1571.7198,-94.05
189963,SLG,20,1.08087,-28.2869,1.091549,-145.6204,1.063767,93.8626,1319.0467,137.7665,1808.121,28.0985,1646.7418,-94.3581
189963,SLG,30,1.08114,-27.652,1.087762,-145.7988,1.068598,93.7788,1455.9027,140.6999,1793.6116,27.4033,1672.5227,-94.377
189963,SLG,40,1.081116,-27.332,1.085917,-145.8927,1.07106,93.7414,1524.9446,142.0684,1786.7797,27.0413,1685.5176,-94.371
189963,LL,0,0.691603,-36.0244,0.621152,-164.613,1.236009,95.8421,7186.6761,-66.8182,8689.366,138.5149,2398.8167,-87.2227
189963,LL,10,1.047978,-29.5278,1.101071,-149.0804,1.074919,95.2768,825.5993,124.5051,989.2367,11.7929,1666.8712,-89.3671
189963,LL,20,1.065611,-28.0583,1.092323,-147.5853,1.075119,94.4596,1254.3347,137.3122,1379.4696,20.1946,1686.8138,-91.9464
189963,LL,30,1.070916,-27.5169,1.088711,-147.1076,1.075913,94.1857,1409.452,140.4534,1509.6202,22.3032,1697.5462,-92.7645
189963,LL,40,1.073435,-27.2371,1.08679,-146.8735,1.076449,94.0496,1488.8894,141.9003,1574.5129,23.2717,1703.653,-93.1612
189963,3LG,0,0.682923,-41.784,0.683006,-161.7992,0.683239,78.2207,8946.9636,-82.9486,8944.0983,157.0477,8943.4001,37.0525
189963,3LG,10,1.072527,-28.5815,1.07362,-148.4158,1.071053,91.4727,856.0344,130.8036,891.1321,11.0171,852.2269,-109.3506
189963,3LG,20,1.077006,-27.5059,1.077666,-147.3343,1.07532,92.5285,1280.0624,139.9406,1315.0133,19.994,1273.5318,-100.2058
189963,3LG,30,1.078267,-27.1325,1.078779,-146.9603,1.076534,92.8946,1428.4494,142.1354,1463.2211,22.1745,1421.0319,-98.0152
189963,3LG,40,1.07885,-26.943,1.079287,-146.7707,1.077098,93.0802,1503.7683,143.1395,1538.4313,23.1741,1495.9154,-97.014
181977,SLG,0,0.661537,-37.7325,1.269934,-150.3723,1.093419,104.1226,4757.0918,-100.1579,2879.1439,16.9253,1733.3776,-63.9718
181977,SLG,10,1.079455,-30.1599,1.103002,-145.0748,1.048976,94.1106,931.651,125.7417,1864.4288,30.2407,1559.855,-94.0382
181977,SLG,20,1.082124,-28.3026,1.091163,-145.5698,1.063134,93.8185,1322.7144,137.2931,1810.7421,28.2901,1640.3304,-94.3945
181977,SLG,30,1.082063,-27.6634,1.08747,-145.7634,1.068168,93.7472,1458.3201,140.3674,1795.0972,27.5398,1668.1796,-94.4108
181977,SLG,40,1.081843,-27.3408,1.085684,-145.8655,1.070735,93.7168,1526.7571,141.8136,1787.7871,27.1467,1682.2403,-94.3999
181977,LL,0,0.747161,-35.2854,0.692325,-162.7901,1.21764,96.0839,5978.322,-64.3402,7363.6991,140.4942,2358.1154,-87.4758
181977,LL,10,1.048513,-29.5944,1.102553,-149.0489,1.073505,95.3091,829.3271,123.7425,998.8625,11.1812,1663.9948,-88.946
181977,LL,20,1.066175,-28.1136,1.093307,-147.5598,1.074143,94.4723,1253.6739,136.7707,1384.5144,19.869,1683.2632,-91.751
181977,LL,30,1.071381,-27.5582,1.089407,-147.0877,1.075203,94.1924,1408.4704,140.072,1513.0465,22.0884,1694.7283,-92.642
181977,LL,40,1.07382,-27.2696,1.087324,-146.8574,1.075895,94.0539,1487.96,141.6077,1577.1054,23.112,1701.3776,-93.0728
181977,3LG,0,0.745143,-40.101,0.745379,-160.1132,0.745576,79.912,7528.9547,-80.6435,7524.2685,159.3522,7523.8574,39.3572
181977,3LG,10,1.07298,-28.5854,1.074131,-148.4182,1.071495,91.4721,861.5788,130.2175,897.0126,10.439,857.8861,-109.912
181977,3LG,20,1.077329,-27.5152,1.078018,-147.3422,1.075626,92.5211,1280.6604,139.5809,1315.8319,19.6401,1274.1721,-100.5552
181977,3LG,30,1.078509,-27.1403,1.079038,-146.967,1.076761,92.888,1428.3495,141.8876,1463.2762,21.9308,1420.9512,-98.2564
181977,3LG,40,1.079042,-26.9494,1.079491,-146.7763,1.077277,93.0747,1503.5061,142.951,1538.2876,22.9887,1495.6634,-97.1976
181924,SLG,0,0.663947,-33.8188,1.267927,-150.6703,1.100719,104.0973,4638.5241,-108.8884,2974.7508,13.378,1924.264,-62.4789
181924,SLG,10,1.085145,-30.3908,1.10249,-144.8001,1.044708,93.9385,929.9621,121.3902,1882.8363,31.1931,1524.1941,-94.1288
181924,SLG,20,1.085524,-28.3861,1.090378,-145.432,1.061279,93.7103,1324.7598,135.7019,1816.6069,28.8096,1623.5503,-94.5317
181924,SLG,30,1.084434,-27.7108,1.086826,-145.6727,1.067011,93.6708,1460.7733,139.3941,1798.2163,27.8913,1657.3182,-94.5188
181924,SLG,40,1.083656,-27.3731,1.085156,-145.798,1.069899,93.658,1529.0485,141.1127,1789.8275,27.4116,1674.2282,-94.4865
181924,LL,0,0.745678,-33.6965,0.674723,-158.9065,1.216226,95.7454,5934.5121,-69.3633,7410.25,133.894,2465.8388,-89.5229
181924,LL,10,1.048719,-29.9761,1.108965,-149.0635,1.069067,95.4838,805.0739,119.0133,1009.3574,7.8476,1650.5114,-87.6618
181924,LL,20,1.067419,-28.3048,1.096334,-147.5158,1.071478,94.521,1241.8642,134.9964,1392.4311,18.8043,1672.3798,-91.2463
181924,LL,30,1.072468,-27.6825,1.091332,-147.0477,1.073371,94.2151,1401.3163,138.972,1518.9779,21.4733,1686.843,-92.3427
181924,LL,40,1.074731,-27.3612,1.088726,-146.8236,1.074508,94.0671,1482.9348,140.81,1581.7849,22.6824,1695.2736,-92.8628
181924,3LG,0,0.728054,-37.7748,0.728238,-157.7838,0.728443,82.2393,7551.9228,-86.4456,7547.8608,153.5404,7546.9981,33.5463
181924,3LG,10,1.074285,-28.6891,1.07554,-148.5138,1.072703,91.3771,848.7397,126.9354,885.1197,7.3093,845.2122,-113.1161
181924,3LG,20,1.078187,-27.563,1.078898,-147.3849,1.076403,92.4767,1273.9487,138.4185,1309.6785,18.5213,1267.4214,-101.6905
181924,3LG,30,1.079127,-27.1709,1.079663,-146.9942,1.07732,92.8593,1424.1215,141.1767,1459.4119,21.2456,1416.6596,-98.9513
181924,3LG,40,1.079523,-26.9719,1.079974,-146.7962,1.077712,93.0535,1500.4578,142.4383,1535.5063,22.4943,1492.5527,-97.699
181993,SLG,0,0.69045,-33.1232,1.261176,-150.3483,1.095791,103.6558,4295.8359,-110.8757,2951.4638,13.0342,1935.0567,-63.343
181993,SLG,10,1.086989,-30.4557,1.102216,-144.7024,1.043243,93.8724,930.9282,120.1999,1890.7271,31.5414,1510.4089,-94.1334
181993,SLG,20,1.086794,-28.4107,1.090008,-145.38,1.060617,93.6659,1326.7047,135.1662,1818.9611,29.0171,1616.8281,-94.5881
181993,SLG,30,1.085352,-27.7246,1.086524,-145.6378,1.066595,93.6389,1462.5202,139.0468,1799.3822,28.0348,1652.9375,-94.5667
181993,SLG,40,1.084371,-27.3824,1.084909,-145.7719,1.069598,93.6333,1530.5422,140.8557,1790.546,27.5207,1670.9888,-94.526
181993,LL,0,0.76242,-33.1084,0.699161,-157.435,1.20897,95.759,5522.2233,-70.36,6924.252,132.3631,2459.6103,-90.0533
181993,LL,10,1.048691,-30.0878,1.11096,-149.066,1.067562,95.5443,799.308,117.7388,1013.8582,6.8872,1647.3121,-87.1421
181993,LL,20,1.067912,-28.3712,1.097403,-147.4953,1.070452,94.537,1238.8349,134.3807,1396.2122,18.4524,1668.2149,-91.0381
181993,LL,30,1.072922,-27.7274,1.092031,-147.0292,1.072647,94.2217,1399.4546,138.5663,1521.8111,21.2619,1683.638,-92.2209
181993,LL,40,1.075119,-27.3949,1.089241,-146.808,1.073953,94.0704,1481.6234,140.5076,1584.0148,22.532,1692.7346,-92.7783
181993,3LG,0,0.74609,-36.5765,0.746317,-156.5791,0.746477,83.4419,7051.0456,-87.7096,7046.2842,152.2674,7045.6833,32.2776
181993,3LG,10,1.074684,-28.7155,1.075953,-148.5367,1.073051,91.3531,846.8997,126.0274,883.5514,6.4597,843.2841,-113.995
181993,3LG,20,1.078503,-27.5776,1.079208,-147.3974,1.076679,92.4629,1272.5824,138.0217,1308.4909,18.1452,1265.957,-102.0767
181993,3LG,30,1.079366,-27.1808,1.079894,-147.0026,1.07753,92.8498,1423.1827,140.9197,1458.5897,21.0013,1415.6386,-99.202
181993,3LG,40,1.079712,-26.9794,1.080157,-146.8025,1.07788,93.0463,1499.7516,142.248,1534.8855,22.3131,1491.7785,-97.885
181994,SLG,0,0.717822,-32.8817,1.254379,-149.9463,1.089297,103.1811,3948.8522,-112.0946,2919.6306,13.1598,1920.8595,-64.2549
181994,SLG,10,1.08841,-30.5264,1.10213,-144.615,1.041853,93.8205,927.9869,119.1317,1898.7314,31.8492,1497.6015,-94.1095
181994,SLG,20,1.087911,-28.4413,1.089732,-145.3309,1.05996,93.6274,1326.5983,134.6494,1821.3506,29.213,1610.395,-94.6381
181994,SLG,30,1.086184,-27.743,1.086281,-145.6046,1.066177,93.6105,1462.8732,138.7052,1800.547,28.1721,1648.7209,-94.612
181994,SLG,40,1.085026,-27.3953,1.084704,-145.7469,1.069294,93.611,1530.982,140.6007,1791.2512,27.6258,1667.8644,-94.5642
181994,LL,0,0.781774,-32.582,0.72819,-156.4968,1.201596,95.8165,5046.7117,-70.9505,6370.8477,131.5254,2444.6449,-90.3146
181994,LL,10,1.048354,-30.1871,1.112654,-149.0874,1.066376,95.6069,791.1376,116.629,1013.7865,5.9823,1645.6838,-86.6474
181994,LL,20,1.068255,-28.437,1.09841,-147.4847,1.069534,94.5559,1234.2327,133.7899,1397.771,18.101,1664.4448,-90.8338
181994,LL,30,1.073285,-27.7731,1.092703,-147.0172,1.071983,94.2302,1396.4543,138.1683,1523.1644,21.0471,1680.6118,-92.1017
181994,LL,40,1.075442,-27.4295,1.089741,-146.7972,1.073439,94.0752,1479.4262,140.2081,1585.1325,22.3779,1690.3011,-92.6959
181994,3LG,0,0.76924,-35.6251,0.769543,-155.6188,0.769621,84.3992,6472.2839,-88.3905,6466.3716,151.5737,6466.3808,31.5914
181994,3LG,10,1.074952,-28.7452,1.076236,-148.5631,1.073272,91.326,842.2765,125.1932,879.1868,5.6822,838.6111,-114.7992
181994,3LG,20,1.07877,-27.5956,1.079471,-147.4131,1.076907,92.4458,1269.5227,137.6313,1305.6092,17.7755,1262.8172,-102.4559
181994,3LG,30,1.079577,-27.1933,1.080099,-147.0136,1.077712,92.8377,1421.0342,140.6619,1456.558,20.7563,1413.419,-99.4532
181994,3LG,40,1.079884,-26.9889,1.080322,-146.8109,1.078028,93.0371,1498.1073,142.0553,1533.3267,22.1297,1490.0739,-98.073
181891,SLG,0,0.760957,-34.12,1.243149,-149.1437,1.075928,102.348,3396.6412,-108.6878,2809.3983,15.2873,1802.4612,-66.9179
181891,SLG,10,1.086543,-30.4278,1.102352,-144.6893,1.042952,93.8716,931.9832,121.1045,1897.6175,31.518,1506.9955,-93.8994
181891,SLG,20,1.087197,-28.4181,1.089962,-145.3552,1.060234,93.6508,1328.1316,135.0695,1821.7993,29.0852,1613.4555,-94.5442
181891,SLG,30,1.085784,-27.7327,1.086445,-145.6175,1.066303,93.6247,1463.6098,138.902,1800.9624,28.0975,1650.4289,-94.5555
181891,SLG,40,1.084758,-27.3893,1.084828,-145.7553,1.069368,93.621,1531.4231,140.7209,1791.589,27.5739,1669.0282,-94.5245
181891,LL,0,0.815222,-32.9236,0.778692,-156.8309,1.188562,96.0371,4342.3903,-67.4948,5502.2272,134.4214,2351.9816,-89.7889
181891,LL,10,1.048389,-30.006,1.110186,-149.0795,1.068042,95.5521,808.4763,119.0368,1011.3847,7.2304,1656.0135,-86.9864
181891,LL,20,1.067933,-28.3818,1.097776,-147.4945,1.070163,94.5511,1240.0792,134.311,1397.5659,18.314,1668.8445,-90.9021
181891,LL,30,1.07305,-27.7447,1.092412,-147.0244,1.07233,94.2305,1399.5127,138.4211,1523.2445,21.1342,1683.1665,-92.1316
181891,LL,40,1.075267,-27.4114,1.08957,-146.8025,1.073669,94.0764,1481.3926,140.3668,1585.28,22.4262,1692.0554,-92.7136
181891,3LG,0,0.811757,-35.5877,0.812254,-155.5693,0.812121,84.4447,5589.898,-85.2335,5580.9906,154.7209,5583.4383,34.7503
181891,3LG,10,1.074669,-28.6895,1.075894,-148.5116,1.07304,91.3759,854.1632,126.5359,890.7017,6.9477,850.3467,-113.5197
181891,3LG,20,1.078646,-27.5769,1.079337,-147.3965,1.076818,92.4626,1274.3573,137.9116,1310.2838,18.0398,1267.6157,-102.1942
181891,3LG,30,1.079505,-27.183,1.080024,-147.0045,1.077663,92.8469,1423.8108,140.7964,1459.2465,20.8825,1416.1796,-99.3291
181891,3LG,40,1.079835,-26.982,1.080273,-146.8049,1.077997,93.0432,1500.0069,142.1392,1535.1675,22.2082,1491.9638,-97.9962
255335,SLG,0,0.761739,-33.3279,1.245939,-149.1359,1.075024,102.4739,3390.0135,-112.1546,2873.4222,14.0557,1868.2184,-65.362
255335,SLG,10,1.090071,-30.6715,1.102474,-144.471,1.039314,93.7572,913.3494,117.4691,1915.3822,32.3247,1475.243,-93.9452
255335,SLG,20,1.089561,-28.5167,1.089509,-145.243,1.058643,93.5707,1320.4064,133.7655,1827.0558,29.5552,1598.3067,-94.6841
255335,SLG,30,1.087471,-27.7916,1.086024,-145.5436,1.065315,93.567,1459.2325,138.1069,1803.5549,28.4195,1640.6437,-94.6692
255335,SLG,40,1.086061,-27.4308,1.084469,-145.7005,1.068657,93.5763,1528.4694,140.1493,1793.1839,27.8176,1661.8258,-94.6166
255335,LL,0,0.820275,-32.1019,0.780551,-156.2181,1.190194,96.0128,4160.5293,-69.5094,5396.5923,132.828,2417.6564,-90.3108
255335,LL,10,1.046851,-30.3462,1.115165,-149.1637,1.064842,95.7347,767.9881,115.0583,1004.938,4.5324,1647.2213,-85.7513
255335,LL,20,1.068359,-28.5618,1.100147,-147.489,1.068049,94.6036,1219.7609,132.8172,1395.4646,17.4968,1658.8544,-90.4242
255335,LL,30,1.073607,-27.8628,1.093896,-147.0112,1.070866,94.2552,1386.4652,137.4919,1522.0205,20.6728,1675.6775,-91.8569
255335,LL,40,1.075784,-27.4987,1.090638,-146.7894,1.07256,94.0911,1471.8603,139.6921,1584.3899,22.1078,1686.2023,-92.5248
255335,3LG,0,0.816076,-34.9296,0.816621,-154.9064,0.816455,85.1078,5423.6001,-86.8679,5414.2251,153.0726,5416.5612,33.1073
255335,3LG,10,1.075024,-28.8024,1.076355,-148.6149,1.073284,91.2739,827.017,124.0249,864.4581,4.6,823.4262,-115.9143
255335,3LG,20,1.079043,-27.6361,1.079747,-147.4497,1.077118,92.4076,1258.9061,137.0131,1295.3504,17.1907,1252.1363,-103.0534
255335,3LG,30,1.079823,-27.2227,1.08034,-147.0402,1.07791,92.8096,1413.3341,140.2407,1449.0937,20.3562,1405.6403,-99.8621
255335,3LG,40,1.080094,-27.0118,1.080526,-146.8317,1.078201,93.015,1492.108,141.7359,1527.5004,21.8258,1484.0016,-98.3837
182030,SLG,0,0.773121,-33.787,1.243655,-148.8634,1.070116,102.2613,3248.3804,-110.8346,2853.3012,14.8056,1829.4673,-65.7504
182030,SLG,10,1.089676,-30.6386,1.102405,-144.4891,1.039646,93.764,915.4986,118.032,1914.7857,32.2588,1477.3411,-93.914
182030,SLG,20,1.089427,-28.5095,1.089515,-145.2479,1.058718,93.5736,1321.0457,133.8658,1827.0711,29.5366,1598.7801,-94.6719
182030,SLG,30,1.087407,-27.7886,1.086031,-145.5457,1.065347,93.5684,1459.51,138.1477,1803.5889,28.4111,1640.842,-94.6633
182030,SLG,40,1.086024,-27.4292,1.084473,-145.7017,1.068675,93.5772,1528.622,140.1712,1793.2109,27.8129,1661.9335,-94.6131
182030,LL,0,0.829296,-32.0515,0.79656,-156.438,1.187173,96.1207,3931.2804,-68.7296,5116.3642,133.9642,2400.1339,-89.9399
182030,LL,10,1.047001,-30.3048,1.114505,-149.1477,1.065119,95.715,772.0923,115.6638,1005.7805,4.9929,1648.7487,-85.8377
182030,LL,20,1.068333,-28.5505,1.099979,-147.4877,1.068149,94.6004,1221.0104,132.9254,1395.6849,17.5718,1659.4772,-90.4379
182030,LL,30,1.073585,-27.8578,1.093824,-147.011,1.070913,94.2542,1387.025,137.536,1522.1148,20.7019,1675.9743,-91.8614
182030,LL,40,1.07577,-27.4959,1.090598,-146.7894,1.072587,94.0906,1472.1741,139.716,1584.4423,22.1232,1686.3729,-92.5269
182030,3LG,0,0.829784,-34.8715,0.830418,-154.8442,0.83017,85.1696,5133.1776,-85.8694,5122.5487,154.0659,5125.7817,34.1052
182030,3LG,10,1.07491,-28.7862,1.076228,-148.5992,1.073173,91.2893,829.9344,124.472,867.3372,5.0275,826.3195,-115.4727
182030,3LG,20,1.079002,-27.6319,1.079704,-147.4458,1.077079,92.4115,1259.8413,137.0895,1296.2667,17.2647,1253.0708,-102.9779
182030,3LG,30,1.079803,-27.2208,1.080319,-147.0384,1.077891,92.8114,1413.7656,140.2716,1449.517,20.3862,1406.0726,-99.8315
182030,3LG,40,1.080082,-27.0107,1.080513,-146.8307,1.078189,93.016,1492.3541,141.7526,1527.742,21.842,1484.2485,-98.3672
182153,SLG,0,0.828779,-34.4996,1.236409,-147.7053,1.049118,101.4465,2544.985,-110.0314,2827.4138,16.0544,1770.4354,-66.3354
182153,SLG,10,1.090362,-31.2134,1.106844,-144.1518,1.032206,93.8586,833.7046,112.7528,1975.1119,33.176,1448.3385,-92.5617
182153,SLG,20,1.092465,-28.8067,1.090157,-145.0116,1.054551,93.4776,1278.8781,131.476,1848.1223,30.3937,1564.6213,-94.6065
182153,SLG,30,1.089991,-27.987,1.086152,-145.378,1.06256,93.4865,1431.8397,136.552,1815.5131,29.0576,1617.5267,-94.7056
182153,SLG,40,1.088175,-27.5769,1.084438,-145.5726,1.066596,93.5089,1508.1866,138.9728,1801.2464,28.3234,1644.3382,-94.6762
182153,LL,0,0.887927,-31.8036,0.862448,-156.7236,1.173048,96.3656,2735.7252,-60.7531,3918.4964,140.0595,2378.6986,-90.0635
182153,LL,10,1.040685,-30.5527,1.118688,-149.5815,1.064659,96.0899,708.559,112.9895,937.3047,0.0964,1676.8081,-83.774
182153,LL,20,1.066363,-28.9159,1.104621,-147.6115,1.064947,94.7971,1156.6837,130.529,1367.3982,15.7989,1650.4993,-89.1599
182153,LL,30,1.072989,-28.1293,1.097076,-147.0666,1.068302,94.3669,1341.5602,135.8518,1504.0928,19.6483,1665.5629,-91.0743
182153,LL,40,1.07562,-27.7079,1.093055,-146.8207,1.070475,94.1667,1437.3047,138.4251,1571.129,21.3801,1677.0714,-91.9708
182153,3LG,0,0.895185,-34.7389,0.896393,-154.6781,0.89545,85.3265,3797.7606,-78.4995,3778.527,161.4142,3789.5781,41.48
182153,3LG,10,1.074023,-28.9889,1.075601,-148.7957,1.072313,91.103,759.6873,121.1261,798.4165,1.8646,757.3732,-118.6802
182153,3LG,20,1.079003,-27.7775,1.0798,-147.5828,1.076982,92.2753,1210.6892,135.5743,1248.1723,15.8141,1204.3323,-104.4322
182153,3LG,30,1.07995,-27.3276,1.080507,-147.1388,1.077947,92.7101,1377.9052,139.2586,1414.3646,19.4151,1370.3653,-100.8074
182153,3LG,40,1.080254,-27.0944,1.080707,-146.9094,1.078284,92.9361,1464.307,140.989,1500.2137,21.1093,1456.267,-99.1046
182158,SLG,0,0.847434,-34.317,1.231597,-147.4128,1.045034,101.0825,2309.1886,-111.3631,2803.9798,16.2652,1759.7952,-67.0786
182158,SLG,10,1.090314,-31.4027,1.108654,-144.0376,1.029567,93.9148,807.9475,111.1174,1999.3189,33.4207,1442.2806,-91.9061
182158,SLG,20,1.093667,-28.9022,1.090312,-144.9238,1.053047,93.4375,1267.2825,130.6406,1856.3045,30.6982,1552.006,-94.567
182158,SLG,30,1.091046,-28.0494,1.086105,-145.3152,1.061567,93.4514,1424.7278,135.9773,1819.9969,29.295,1608.8777,-94.721
182158,SLG,40,1.089061,-27.6226,1.084341,-145.5244,1.065863,93.4794,1503.1605,138.5362,1804.1789,28.5129,1637.8174,-94.7028
182158,LL,0,0.902867,-31.5642,0.881398,-156.2573,1.167712,96.3702,2406.8154,-59.5535,3551.1688,140.2278,2362.2377,-90.2947
182158,LL,10,1.040269,-30.4307,1.11805,-149.744,1.06609,96.146,731.4089,113.8744,910.5458,-1.6696,1697.3797,-83.4853
182158,LL,20,1.065673,-29.0375,1.106392,-147.6497,1.063769,94.8708,1137.3935,129.7349,1360.8118,15.1227,1648.4659,-88.6652
182158,LL,30,1.072863,-28.2228,1.098335,-147.0783,1.067288,94.4072,1328.0492,135.2523,1500.5163,19.2461,1662.0204,-90.77
182158,LL,40,1.075668,-27.7814,1.094003,-146.8242,1.069644,94.1926,1427.045,137.954,1568.6828,21.0978,1673.6816,-91.7584
182158,3LG,0,0.911532,-34.3254,0.912914,-154.248,0.911683,85.7487,3410.0283,-77.7467,3387.8174,162.1395,3401.9674,42.2292
182158,3LG,10,1.073791,-29.042,1.075448,-148.8481,1.072105,91.054,741.7735,120.1372,780.8135,0.9223,739.8182,-119.6355
182158,3LG,20,1.079082,-27.8202,1.07991,-147.6228,1.077027,92.2354,1197.4425,135.0409,1235.265,15.3025,1191.1616,-104.946
182158,3LG,30,1.080069,-27.3596,1.080637,-147.1686,1.078032,92.6797,1368.1122,138.8884,1404.7978,19.0601,1360.5617,-101.1655
182158,3LG,40,1.080371,-27.1197,1.080828,-146.9329,1.078372,92.9119,1456.6069,140.7054,1492.6761,20.8373,1448.5322,-99.3797
182162,SLG,0,0.863098,-34.0726,1.227116,-147.191,1.042318,100.7646,2112.269,-113.212,2781.4714,16.3624,1755.732,-67.8101
182162,SLG,10,1.090087,-31.5927,1.110617,-143.9265,1.026895,93.9807,781.6564,109.5063,2024.418,33.6254,1437.1319,-91.1831
182162,SLG,20,1.094866,-28.9982,1.090492,-144.8347,1.05151,93.3977,1255.92,129.7996,1864.9074,30.9986,1539.217,-94.5148
182162,SLG,30,1.092121,-28.1115,1.086056,-145.2513,1.060558,93.4154,1417.9683,135.3965,1824.6656,29.5334,1600.0859,-94.7334
182162,SLG,40,1.089971,-27.6676,1.084234,-145.4753,1.065122,93.4489,1498.4863,138.0946,1807.1998,28.7044,1631.1933,-94.7292
182162,LL,0,0.915174,-31.3469,0.896544,-155.7827,1.16309,96.3502,2137.5014,-58.6918,3250.2437,139.9077,2347.3083,-90.5662
182162,LL,10,1.039931,-30.3113,1.117327,-149.9006,1.067523,96.199,754.0133,114.6331,884.4381,-3.4083,1718.0473,-83.2337
182162,LL,20,1.064894,-29.157,1.108217,-147.6913,1.062621,94.9493,1118.4454,128.9685,1354.5785,14.4104,1647.2423,-88.1519
182162,LL,30,1.072713,-28.3163,1.099642,-147.0902,1.066261,94.4495,1314.8576,134.6553,1497.4365,18.8262,1658.6851,-90.4528
182162,LL,40,1.075715,-27.8551,1.094985,-146.8269,1.068794,94.2194,1417.096,137.4805,1566.6897,20.8052,1670.3346,-91.5381
182162,3LG,0,0.924461,-33.9402,0.92597,-153.8478,0.924489,86.1408,3092.6078,-77.4262,3067.9851,162.4261,3084.852,42.5451
182162,3LG,10,1.073569,-29.0921,1.075304,-148.898,1.071917,91.0077,725.0605,119.159,764.3727,-0.0129,723.4887,-120.5838
182162,3LG,20,1.079171,-27.8613,1.080034,-147.6612,1.077085,92.1973,1184.9793,134.5038,1223.1567,14.787,1178.791,-105.4627
182162,3LG,30,1.080199,-27.3906,1.08078,-147.1972,1.078127,92.6505,1358.8925,138.5137,1395.815,18.701,1351.332,-101.5275
182162,3LG,40,1.080499,-27.1441,1.080961,-146.9556,1.07847,92.8885,1449.3581,140.4178,1485.5958,20.5617,1441.246,-99.6584
